!VERBOSITY = 2 
!INTERPOLATE_RES_FN = F
RESTART_CHECKSUMS_REQUIRED = F
#override REGRIDDING_COORDINATE_MODE = "Z*"
#override ALE_COORDINATE_CONFIG="FILE:ocean_zstar_coord.nc,dz"
#override USE_IDEAL_AGE_TRACER = F
