INTERPOLATE_RES_FN = False
VERTEX_SHEAR=True
BUOY_CONFIG='zero'
WIND_CONFIG='zero'
